reduced_networks/case533mt/83pct/case533mt_reduced_s1.m
%% case533mt_reduced_s1 -- Opti-KRON reduction of case533mt
%
%   533 buses reduced to 88 super-nodes (83.5% reduction), 87 branches.
%   Loads are scenario 1 of 2.
%
%   Equivalent branches come from the Kron-reduced admittance matrix, so a
%   negative resistance is possible and is not an error -- an equivalent
%   branch stands in for eliminated network, not for a conductor.
%
%   Bus map -- each super-node and the original buses it represents:
%     1 <- 1 4
%     2 <- 2 28 29 36 37 38 39 40 60 61 62 63 72 73 74 75 76 77 81 82 217 222 243 262
%     3 <- 3 83 211 212 218 219 220 221 224 230 233
%     5 <- 5 9 22 23 24 25 26 27 44 45 46 48 55 56 57 58 59
%     6 <- 6 41
%     7 <- 7 8
%     10 <- 10 11 12 13 14 15 16 17 18 19 20 21
%     30 <- 30 31 32 33 34 35
%     42 <- 42 43
%     47 <- 47
%     49 <- 49 53 54
%     50 <- 50 51 52
%     64 <- 64 65 66 69 70 71
%     78 <- 78 79 80 130
%     84 <- 84
%     85 <- 85 86 87 88 89 90 91 92 93 94 95 96 97 98 99 100
%     101 <- 101
%     102 <- 102
%     103 <- 103 104
%     105 <- 105 106 107
%     108 <- 108
%     109 <- 109 131
%     110 <- 110 111
%     112 <- 112
%     113 <- 113 114 115 116 117 118 119 120 121 122 123 124 125
%     126 <- 126 127 128 129 195
%     132 <- 132
%     133 <- 133 134
%     135 <- 135 136 166
%     137 <- 137 138
%     139 <- 139
%     140 <- 140
%     141 <- 141 142 143 144 145 146 147 148 149 150 151
%     160 <- 152 153 154 155 156 157 158 159 160 161 162 163 164 165 207 208 209 210
%     167 <- 167 168 169 170 171
%     172 <- 172 173 174 175 176 177
%     178 <- 178 179 181 182 197 198 199 200 201 202 203 204 205 206
%     183 <- 183 184 185 186 196
%     187 <- 187 188 189 190 191 192 193 194
%     213 <- 213 215 216 223
%     225 <- 225 226 227 228 229
%     231 <- 231 232 234 235 236 237
%     238 <- 238
%     239 <- 239
%     240 <- 67 68 240 250 251
%     241 <- 241 242 249 252 253 254
%     244 <- 244
%     245 <- 214 245 246 247 248
%     255 <- 180 255 256 257 263 264 265
%     258 <- 258 259
%     260 <- 260 261
%     266 <- 266 327 352 353 448 449 450 451 452 453 454 455 456 457 513
%     267 <- 267 307 505 506
%     268 <- 268 269
%     270 <- 270 271
%     272 <- 272 273 274 275 276 277 278 279 280 281 282 283 284 285 286 287 288 289 290 291 292 293 301 302 303 304 305 306
%     308 <- 308 309 310 311 312 313 314 315
%     316 <- 316 317 318 326
%     319 <- 294 295 296 297 298 299 300 319 320 321 322 323 324 325
%     328 <- 328 329 330 331 350 351
%     332 <- 332 333 334 335 336 337 338 339 340 341 342 343 344 345 346 347 348 349
%     354 <- 354 355 356
%     357 <- 357 358 359 360
%     361 <- 361 362 363 364 365 366 367 368 417 418
%     369 <- 369 370 371 372 373 374 375 376
%     377 <- 377 378
%     379 <- 379 429
%     380 <- 380
%     381 <- 381 382 383 385 427 428
%     384 <- 384 386
%     387 <- 387 388 389 390 391
%     392 <- 392 393
%     394 <- 394 395 396 397 398 399 400 401 403 404 405 406 407
%     402 <- 402 408 409 410 411 412 413 414 415 416 419 420
%     421 <- 421 422 423 424 425 426
%     430 <- 430 431 432 444 445 446 447
%     433 <- 433 434 435 436 437 438 439 440 441 442
%     443 <- 443
%     458 <- 458 459 460 461 462 463 464 465 466 467 468 469 470 471 500 501 502 503 504
%     472 <- 472 473 474 475 476 488 489 490 491 492
%     477 <- 477 478 479 480 481 482 483 484 485 486 487 493 494 495 496 497 499
%     510 <- 510 512
%     511 <- 507 508 509 511
%     514 <- 514 515 516
%     517 <- 498 517 533
%     518 <- 518 519 520
%     521 <- 521 522 523 532
%     524 <- 524 525 526 527 528 529 530 531

function mpc = case533mt_reduced_s1
mpc.version = '2';
mpc.baseMVA = 1;

%% bus data
%	bus_i	type	Pd	Qd	Gs	Bs	area	Vm	Va	baseKV	zone	Vmax	Vmin
mpc.bus = [
	1	3	-0	-0	-2.2737367544323206e-13	2.2737367544323206e-13	1	1	0	1	1	1.1	0.9;
	2	1	0.18829051992000001	0.0018829037399999999	-3.9968028886505635e-14	1.936228954946273e-13	1	1	0	1	1	1.1	0.9;
	3	1	0.04081252002	0.00040812521999999995	1.2612133559741778e-13	-3.0020430585864233e-13	1	1	0	1	1	1.1	0.9;
	5	1	0.040819300019999991	0.00040819181999999994	-6.6835786288113356e-15	-1.6823886621871235e-16	1	1	0	1	1	1.1	0.9;
	6	1	0.00119816004	1.1980019999999999e-05	-5.0478233354918605e-15	-3.9260064608897877e-15	1	1	0	1	1	1.1	0.9;
	7	1	-0.00052000001999999998	-5.2020000000000003e-06	-3.1086244689504383e-15	7.2164496600635175e-16	1	1	0	1	1	1.1	0.9;
	10	1	0.0048591797999999993	4.8586499999999986e-05	-9.7699626167013776e-15	-9.7699626167013776e-15	1	1	0	1	1	1.1	0.9;
	30	1	0.03358958003999999	0.00033589583999999996	5.9057795808910508e-14	-1.3340483337283889e-13	1	1	0	1	1	1.1	0.9;
	42	1	0.00016000001999999999	1.6019999999999999e-06	6.3486256715212638e-15	-7.9587634919129042e-15	1	1	0	1	1	1.1	0.9;
	47	1	-0.0012199999799999998	-1.219998e-05	0	0	1	1	0	1	1	1.1	0.9;
	49	1	0.0019266799799999997	1.9266000000000002e-05	1.0503839514047758e-14	1.1552585384747813e-14	1	1	0	1	1	1.1	0.9;
	50	1	0.00031913999999999988	3.1944000000000003e-06	6.2874377641613066e-15	-1.0665960265269421e-14	1	1	0	1	1	1.1	0.9;
	64	1	0.030421880039999998	0.00030421883999999993	-8.0788630543263031e-14	2.4603841224034408e-14	1	1	0	1	1	1.1	0.9;
	78	1	0.0034636799999999994	3.4639619999999994e-05	-7.4278849897003023e-16	1.9647785566245094e-14	1	1	0	1	1	1.1	0.9;
	84	1	0.0017756800199999999	1.7756820000000001e-05	-5.3273486114919311e-15	-2.7632651375078702e-15	1	1	0	1	1	1.1	0.9;
	85	1	0.0080520400199999998	8.0526839999999999e-05	7.009981478725223e-14	-7.3125715949719131e-14	1	1	0	1	1	1.1	0.9;
	101	1	0.00153432	1.5343199999999999e-05	0	0	1	1	0	1	1	1.1	0.9;
	102	1	0.00092839997999999999	9.2839799999999998e-06	0	0	1	1	0	1	1	1.1	0.9;
	103	1	0.00058469999999999996	5.8499999999999999e-06	1.0553561118530473e-14	-2.8355525442895747e-14	1	1	0	1	1	1.1	0.9;
	105	1	0.0077984400000000002	7.798379999999999e-05	7.2568551724652666e-14	3.5958245511023034e-14	1	1	0	1	1	1.1	0.9;
	108	1	0.00298986	2.9898599999999995e-05	8.8817841970012523e-15	-3.5527136788005009e-15	1	1	0	1	1	1.1	0.9;
	109	1	0.00052976003999999995	5.2979999999999999e-06	-1.455082061128e-14	3.9995415025335475e-15	1	1	0	1	1	1.1	0.9;
	110	1	0.0020398199999999999	2.0398200000000001e-05	-1.2909580123187771e-14	1.3696207053037084e-14	1	1	0	1	1	1.1	0.9;
	112	1	0.00032969999999999999	3.2999999999999997e-06	-8.881784197001347e-15	8.8817841970004998e-15	1	1	0	1	1	1.1	0.9;
	113	1	0.0035445799799999995	3.5444399999999996e-05	-3.9528664920389644e-14	2.8723719805143451e-14	1	1	0	1	1	1.1	0.9;
	126	1	0.00181284006	1.8134219999999998e-05	2.7708509024750097e-14	-1.5709166794507839e-14	1	1	0	1	1	1.1	0.9;
	132	1	0.00072967997999999999	7.2967799999999996e-06	0	0	1	1	0	1	1	1.1	0.9;
	133	1	0.0010610399999999999	1.061298e-05	1.8597749837351831e-14	-1.0709676802575996e-14	1	1	0	1	1	1.1	0.9;
	135	1	0.0040172000400000001	4.0169639999999998e-05	1.8745127801441159e-14	-1.9473771698329117e-14	1	1	0	1	1	1.1	0.9;
	137	1	0.00042301998	4.2300000000000002e-06	3.6288065302686198e-16	1.236102512903179e-14	1	1	0	1	1	1.1	0.9;
	139	1	0.00039991997999999998	4.0019999999999991e-06	8.3418371408944275e-15	2.5985550809466657e-14	1	1	0	1	1	1.1	0.9;
	140	1	0.00150607998	1.506078e-05	-8.8817841970012523e-16	0	1	1	0	1	1	1.1	0.9;
	141	1	0.0092607799799999981	9.2608560000000004e-05	-5.9116454387791373e-14	-4.5185641605501696e-14	1	1	0	1	1	1.1	0.9;
	160	1	0.0065207801399999998	6.5207459999999979e-05	7.5682311282537696e-14	-1.8062536732890342e-13	1	1	0	1	1	1.1	0.9;
	167	1	0.026742059939999993	0.00026742053999999999	-1.4703696475412635e-13	-1.6120473585334932e-14	1	1	0	1	1	1.1	0.9;
	172	1	-0.0052999999800000001	-5.2999979999999999e-05	-1.0266033388523448e-12	4.047756120617984e-13	1	1	0	1	1	1.1	0.9;
	178	1	0.0065367600000000008	6.5372219999999985e-05	-3.6722687015911237e-13	5.1852319857725311e-13	1	1	0	1	1	1.1	0.9;
	183	1	0.0044879800199999998	4.4881379999999999e-05	-1.6926666164690144e-13	1.0594642247579579e-13	1	1	0	1	1	1.1	0.9;
	187	1	0.0056000200199999997	5.6005379999999989e-05	1.1036655433317519e-13	-8.2857271751052701e-14	1	1	0	1	1	1.1	0.9;
	213	1	0.02165422002	0.00021654221999999998	-1.3453078627288002e-15	4.2359918044247149e-14	1	1	0	1	1	1.1	0.9;
	225	1	0.036797339999999998	0.00036797339999999993	1.8887150783534877e-14	-1.6763532355730771e-13	1	1	0	1	1	1.1	0.9;
	231	1	0.034178399999999998	0.00034178399999999998	8.5177534951102051e-14	2.0998451708784545e-13	1	1	0	1	1	1.1	0.9;
	238	1	0.013455799979999999	0.00013455797999999998	-1.7763568394002505e-15	0	1	1	0	1	1	1.1	0.9;
	239	1	0.0066497200199999995	6.6497219999999985e-05	-3.5527136788005009e-15	0	1	1	0	1	1	1.1	0.9;
	240	1	0.037525480019999995	0.00037525481999999997	-1.7763568394002505e-15	4.3964831775156199e-14	1	1	0	1	1	1.1	0.9;
	241	1	0.03251421996	0.00032514216000000001	-1.0123603711508249e-13	-1.6706178585315428e-13	1	1	0	1	1	1.1	0.9;
	244	1	-0	-0	3.1454879713603423e-14	-7.1856459546656143e-14	1	1	0	1	1	1.1	0.9;
	245	1	0.021547939979999996	0.00021547937999999995	1.421115644045185e-14	-7.1054534093342918e-15	1	1	0	1	1	1.1	0.9;
	255	1	0.045065159940000002	0.00045065153999999995	-2.2737367544323206e-13	2.19824158875781e-13	1	1	0	1	1	1.1	0.9;
	258	1	0.015098600039999997	0.00015098603999999998	6.278843624523851e-14	-4.0247827233047489e-13	1	1	0	1	1	1.1	0.9;
	260	1	0.014915560019999998	0.00014915561999999998	-1.1013412404281553e-13	4.7073456244106637e-14	1	1	0	1	1	1.1	0.9;
	266	1	0.0076327999799999987	7.6331639999999989e-05	2.1316282072803006e-14	2.886579864025407e-15	1	1	0	1	1	1.1	0.9;
	267	1	0.0015525599999999999	1.5521999999999998e-05	-3.5527136788005009e-15	7.5495165674510645e-15	1	1	0	1	1	1.1	0.9;
	268	1	0.0021079400399999998	2.108202e-05	1.3322676295501878e-15	1.5543122344752192e-15	1	1	0	1	1	1.1	0.9;
	270	1	0.0012739799999999996	1.2737999999999999e-05	1.7763568394002505e-15	4.4408920985006262e-16	1	1	0	1	1	1.1	0.9;
	272	1	0.012235899959999996	0.00012235733999999999	-1.0562575656610896e-13	-2.4372338304958143e-13	1	1	0	1	1	1.1	0.9;
	308	1	0.0026849999999999999	2.6843219999999999e-05	1.0425393907849771e-14	2.7277322275249222e-14	1	1	0	1	1	1.1	0.9;
	316	1	0.0034537399799999995	3.4539599999999997e-05	6.6613381477509392e-15	2.4424906541753444e-15	1	1	0	1	1	1.1	0.9;
	319	1	0.0074036199599999998	7.4038559999999997e-05	3.9968028886505635e-15	-3.3306690738754696e-14	1	1	0	1	1	1.1	0.9;
	328	1	0.0036694399799999996	3.6698999999999995e-05	-3.2862601528904634e-14	1.7430501486614958e-14	1	1	0	1	1	1.1	0.9;
	332	1	0.0076581599399999983	7.6580760000000015e-05	1.021405182655144e-13	-1.1102230246251565e-14	1	1	0	1	1	1.1	0.9;
	354	1	0.0046436599799999992	4.6435979999999999e-05	-7.1054273576010019e-15	2.2204460492503131e-15	1	1	0	1	1	1.1	0.9;
	357	1	0.0021232399799999998	2.1230399999999999e-05	-1.9539925233402755e-14	1.6431300764452317e-14	1	1	0	1	1	1.1	0.9;
	361	1	0.0036407399999999995	3.6411600000000002e-05	-1.4106555142600147e-14	1.0631827736896259e-14	1	1	0	1	1	1.1	0.9;
	369	1	0.0014092599	1.4087579999999999e-05	-5.934656326068016e-14	1.753376054765634e-14	1	1	0	1	1	1.1	0.9;
	377	1	-0.00051916001999999998	-5.1899999999999994e-06	-6.8548675365048944e-14	9.9316339062770886e-15	1	1	0	1	1	1.1	0.9;
	379	1	0.0013007199600000002	1.3008180000000001e-05	0	-8.8817841970012523e-16	1	1	0	1	1	1.1	0.9;
	380	1	0.00028949999999999999	2.898e-06	0	0	1	1	0	1	1	1.1	0.9;
	381	1	0.00062361996000000002	6.2365800000000009e-06	2.3784647164808697e-15	-3.7888163215860805e-14	1	1	0	1	1	1.1	0.9;
	384	1	0.00121104	1.21104e-05	-6.0188646410691651e-14	8.0087778608234488e-15	1	1	0	1	1	1.1	0.9;
	387	1	0.0010689999599999998	1.069038e-05	-1.3322676295501878e-14	1.6209256159527285e-14	1	1	0	1	1	1.1	0.9;
	392	1	0.0005532	5.5319999999999997e-06	-1.3375819301247406e-14	1.803831366464869e-14	1	1	0	1	1	1.1	0.9;
	394	1	0.0034030000199999997	3.4033979999999998e-05	1.3915160049628603e-13	4.2165388470700607e-14	1	1	0	1	1	1.1	0.9;
	402	1	0.013682639999999999	0.00013682796	1.3974665688010602e-13	1.0832358989222895e-13	1	1	0	1	1	1.1	0.9;
	421	1	0.00037859993999999996	3.7817999999999999e-06	8.8817841970012523e-15	-2.4646951146678475e-14	1	1	0	1	1	1.1	0.9;
	430	1	0.0011108200199999999	1.111038e-05	1.1215655537314479e-14	-1.3498135366684494e-14	1	1	0	1	1	1.1	0.9;
	433	1	0.0019724000399999999	1.9723799999999996e-05	4.2188474935755949e-14	3.5971225997855072e-14	1	1	0	1	1	1.1	0.9;
	443	1	-0.0020200000199999996	-2.0200020000000001e-05	1.2434497875801753e-14	9.5479180117763462e-15	1	1	0	1	1	1.1	0.9;
	458	1	0.0072122798999999993	7.2133199999999996e-05	-7.28459195388586e-14	4.7013803005769833e-14	1	1	0	1	1	1.1	0.9;
	472	1	0.00337462002	3.3745979999999997e-05	2.7392103016885338e-14	-1.6664693605282261e-15	1	1	0	1	1	1.1	0.9;
	477	1	0.009944459939999999	9.9442380000000014e-05	-7.2329551765203678e-14	5.4024689353518278e-14	1	1	0	1	1	1.1	0.9;
	510	1	0.016761739979999999	0.00016761737999999998	1.7763568394002505e-15	-1.7763568394002505e-15	1	1	0	1	1	1.1	0.9;
	511	1	0.033324059999999996	0.00033324059999999993	-2.4868995751603507e-14	-8.8817841970012523e-16	1	1	0	1	1	1.1	0.9;
	514	1	0.0022291799999999999	2.2291799999999999e-05	-3.1086244689504383e-15	4.4408920985006262e-16	1	1	0	1	1	1.1	0.9;
	517	1	0.0052604200199999991	5.2604219999999995e-05	-4.8849813083506888e-15	2.4424906541753444e-15	1	1	0	1	1	1.1	0.9;
	518	1	0.0026096399999999999	2.6092200000000001e-05	-9.7699626167013776e-15	4.2188474935755949e-15	1	1	0	1	1	1.1	0.9;
	521	1	0.0031143400200000001	3.1143839999999994e-05	8.8817841970012523e-16	-1.4432899320127035e-15	1	1	0	1	1	1.1	0.9;
	524	1	0.0066078400200000002	6.6081419999999995e-05	8.8817841970012523e-16	7.7715611723760958e-16	1	1	0	1	1	1.1	0.9;
];

%% generator data
%	bus	Pg	Qg	Qmax	Qmin	Vg	mBase	status	Pmax	Pmin
mpc.gen = [
	1	0	0	9999	-9999	1	1	1	9999	-9999;
];

%% branch data
%	fbus	tbus	r	x	b	rateA	rateB	rateC	ratio	angle	status	angmin	angmax
mpc.branch = [
	1	2	0.00028918299999999999	0.00047541700000000001	0	0	0	0	0	0	1	-360	360;
	1	3	0.00032846699999999993	0.00066289199999999989	0	0	0	0	0	0	1	-360	360;
	2	5	0.24736426599999994	0.13925106199999981	0	0	0	0	0	0	1	-360	360;
	2	30	0.11026656200000098	0.057088410999999138	0	0	0	0	0	0	1	-360	360;
	2	64	0.14085031299999923	0.077061195000000207	0	0	0	0	0	0	1	-360	360;
	2	78	0.75161756099999744	0.19782766699999993	0	0	0	0	0	0	1	-360	360;
	2	238	0.059086458000000008	0.031777864000000003	0	0	0	0	0	0	1	-360	360;
	2	244	0.14590843800000014	0.074356043999999025	0	0	0	0	0	0	1	-360	360;
	2	255	0.26985402800000008	0.14991080200000001	0	0	0	0	0	0	1	-360	360;
	2	258	0.33720881900000027	0.17722095000000143	0	0	0	0	0	0	1	-360	360;
	2	260	0.14799871499999964	0.079977312999999314	0	0	0	0	0	0	1	-360	360;
	3	84	0.21743426999999982	0.077040795999999925	0	0	0	0	0	0	1	-360	360;
	3	109	0.35337743100000002	0.17770364299999997	0	0	0	0	0	0	1	-360	360;
	3	132	0.14278527799999999	0.068693431999999985	0	0	0	0	0	0	1	-360	360;
	3	167	0.042019305999999992	0.023342796999999995	0	0	0	0	0	0	1	-360	360;
	3	172	0.18320420900000003	0.12431944800000001	0	0	0	0	0	0	1	-360	360;
	3	178	0.40029923599998718	0.17365186099999852	0	0	0	0	0	0	1	-360	360;
	3	213	0.12834156299999858	0.066794186999999824	0	0	0	0	0	0	1	-360	360;
	3	225	0.015397778000000003	0.0085538590000000091	0	0	0	0	0	0	1	-360	360;
	3	231	0.064060277999999998	0.028331494000000623	0	0	0	0	0	0	1	-360	360;
	3	266	0.12242656399999999	0.068011082	0	0	0	0	0	0	1	-360	360;
	3	379	0.075623680999999998	0.041320343000000002	0	0	0	0	0	0	1	-360	360;
	3	430	0.049621389000000002	0.027565947999999996	0	0	0	0	0	0	1	-360	360;
	5	6	0.027863723000000003	0.0043734360000000014	0	0	0	0	0	0	1	-360	360;
	5	10	0.27487777799999991	0.083656794999999978	0	0	0	0	0	0	1	-360	360;
	5	47	0.50667777799999991	0.15420322099999997	0	0	0	0	0	0	1	-360	360;
	5	49	0.33794444499999932	0.10285061700000041	0	0	0	0	0	0	1	-360	360;
	6	7	0.39897798600000001	0.066484391000000018	0	0	0	0	0	0	1	-360	360;
	6	42	0.2914324310000001	0.049238573999999945	0	0	0	0	0	0	1	-360	360;
	49	50	0.099855556000000026	0.030390217999999972	0	0	0	0	0	0	1	-360	360;
	84	85	0.066499999999999976	0.02023872899999998	0	0	0	0	0	0	1	-360	360;
	84	101	0.18617933999999997	0.030111837999999995	0	0	0	0	0	0	1	-360	360;
	101	102	0.16846281299999996	0.027255388999999998	0	0	0	0	0	0	1	-360	360;
	102	103	0.14307777799999999	0.04354454700000001	0	0	0	0	0	0	1	-360	360;
	103	105	0.12207930600000007	0.067922978000000037	0	0	0	0	0	0	1	-360	360;
	105	108	0.15342142400000011	0.035073700000000173	0	0	0	0	0	0	1	-360	360;
	108	472	0.061041909999999991	0.052648729999999991	0	0	0	0	0	0	1	-360	360;
	109	110	0.22148888900000002	0.067408325000000019	0	0	0	0	0	0	1	-360	360;
	110	112	0.18676666699999983	0.056840900999999888	0	0	0	0	0	0	1	-360	360;
	112	113	0.10592222199999995	0.032236558999999984	0	0	0	0	0	0	1	-360	360;
	113	126	0.35726666700000087	0.10873117699999837	0	0	0	0	0	0	1	-360	360;
	132	133	0.077233333000000015	0.023505331000000004	0	0	0	0	0	0	1	-360	360;
	133	135	0.20747777800000033	0.063144158000000117	0	0	0	0	0	0	1	-360	360;
	135	137	0.19876666599999979	0.060493002999999906	0	0	0	0	0	0	1	-360	360;
	137	139	0.16366666699999996	0.049935069999999949	0	0	0	0	0	0	1	-360	360;
	139	140	0.142166667	0.044101089000000003	0	0	0	0	0	0	1	-360	360;
	140	141	0.13792222200000001	0.041975495999999994	0	0	0	0	0	0	1	-360	360;
	141	160	0.3562184029999978	0.13001742999999261	0	0	0	0	0	0	1	-360	360;
	178	183	0.29485507000000222	0.10767874299999963	0	0	0	0	0	0	1	-360	360;
	183	187	0.55081055599998185	0.13632788600001791	0	0	0	0	0	0	1	-360	360;
	238	239	0.083746249999999994	0.042291508999999998	0	0	0	0	0	0	1	-360	360;
	239	240	0.038104096999999996	0.019227637999999995	0	0	0	0	0	0	1	-360	360;
	240	241	0.10815784699999999	0.054566627999999992	0	0	0	0	0	0	1	-360	360;
	244	245	0.013072778000000002	0.0066955189999999996	0	0	0	0	0	0	1	-360	360;
	266	267	0.13329697700000001	0.074049873999999988	0	0	0	0	0	0	1	-360	360;
	266	328	0.15777222199999996	0.067297823000000007	0	0	0	0	0	0	1	-360	360;
	266	354	0.18676729200000008	0.078801180000000096	0	0	0	0	0	0	1	-360	360;
	266	458	0.42234194400000008	0.22587614800000005	0	0	0	0	0	0	1	-360	360;
	266	514	0.216325833	0.07102344699999999	0	0	0	0	0	0	1	-360	360;
	267	268	0.19493333299999996	0.059326358999999988	0	0	0	0	0	0	1	-360	360;
	267	308	0.30336666700000003	0.092327154000000369	0	0	0	0	0	0	1	-360	360;
	267	510	0.106677778	0.032536864000000006	0	0	0	0	0	0	1	-360	360;
	268	270	0.261479132	0.065728773000000018	0	0	0	0	0	0	1	-360	360;
	270	272	0.111588889	0.033961162000000003	0	0	0	0	0	0	1	-360	360;
	308	316	0.28416666699999998	0.086483792000000226	0	0	0	0	0	0	1	-360	360;
	316	319	0.29388375100000025	0.075691438999999819	0	0	0	0	0	0	1	-360	360;
	328	332	0.33882222299999998	0.10311776100000022	0	0	0	0	0	0	1	-360	360;
	354	357	0.3088261109999999	0.17334271899999995	0	0	0	0	0	0	1	-360	360;
	357	361	0.11755722299999997	0.077750927999999969	0	0	0	0	0	0	1	-360	360;
	361	369	0.12891847199999984	0.10848137599999977	0	0	0	0	0	0	1	-360	360;
	369	377	0.22816666599999963	0.070554608000000449	0	0	0	0	0	0	1	-360	360;
	379	380	0.066653193999999999	0.036343317999999999	0	0	0	0	0	0	1	-360	360;
	380	381	0.052732569000000007	0.027908578000000003	0	0	0	0	0	0	1	-360	360;
	381	384	0.10447444399999978	0.076714965999999579	0	0	0	0	0	0	1	-360	360;
	384	387	0.0086260420000000039	0.013162619000000004	0	0	0	0	0	0	1	-360	360;
	387	392	0.25304999999999889	0.38613315300000078	0	0	0	0	0	0	1	-360	360;
	387	421	0.16044444399999988	0.048940558999999953	0	0	0	0	0	0	1	-360	360;
	392	394	0.12355479099999973	0.14281811100000022	0	0	0	0	0	0	1	-360	360;
	394	402	0.1055322919999965	0.16103345800000157	0	0	0	0	0	0	1	-360	360;
	430	433	0.18348388999999984	0.086869399999999972	0	0	0	0	0	0	1	-360	360;
	433	443	0.36050000000000038	0.15943582700000167	0	0	0	0	0	0	1	-360	360;
	472	477	0.28601361199999797	0.22355867900000073	0	0	0	0	0	0	1	-360	360;
	510	511	0.064555556	0.019711312000000005	0	0	0	0	0	0	1	-360	360;
	514	517	0.2581222219999999	0.078557378999999969	0	0	0	0	0	0	1	-360	360;
	517	518	0.26226666699999995	0.079818706999999933	0	0	0	0	0	0	1	-360	360;
	518	521	0.30849999999999989	0.093889441999999962	0	0	0	0	0	0	1	-360	360;
	521	524	0.39006666600000017	0.11871358800000005	0	0	0	0	0	0	1	-360	360;
];
